Version 4
SHEET 1 880 680
WIRE 80 -112 32 -112
WIRE 112 -112 112 -144
WIRE 112 -112 80 -112
WIRE 160 -112 112 -112
WIRE 32 -96 32 -112
WIRE 80 -96 80 -112
WIRE 160 -96 160 -112
WIRE 112 -80 112 -112
WIRE 32 0 32 -32
WIRE 80 0 80 -16
WIRE 80 0 32 0
WIRE 112 0 112 -32
WIRE 112 0 80 0
WIRE 112 32 112 0
WIRE -16 112 -112 112
WIRE 64 112 -16 112
WIRE -304 144 -304 80
WIRE -112 144 -112 112
WIRE -16 144 -16 112
WIRE 160 144 160 -16
WIRE 112 256 112 128
WIRE 160 256 160 224
WIRE 160 256 112 256
WIRE -304 288 -304 224
WIRE -112 288 -112 224
WIRE -16 288 -16 224
WIRE 112 288 112 256
FLAG -16 288 0
FLAG -112 288 0
FLAG 112 288 0
FLAG -304 288 0
FLAG -304 80 Vcc
FLAG 112 -144 Vcc
SYMBOL voltage -112 128 R0
WINDOW 123 0 0 Left 0
WINDOW 39 0 0 Left 0
SYMATTR InstName V1
SYMATTR Value PULSE(0 3.3V 0 1n 1n 100µ 200µ 3)
SYMBOL R 144 128 R0
SYMATTR InstName R2
SYMATTR Value 1k
SYMBOL voltage -304 128 R0
WINDOW 123 0 0 Left 0
WINDOW 39 0 0 Left 0
SYMATTR InstName V3
SYMATTR Value 24
SYMBOL schottky 48 -32 R180
WINDOW 0 24 64 Left 2
WINDOW 3 24 0 Left 2
SYMATTR InstName D1
SYMATTR Value B540C
SYMBOL R -32 128 R0
SYMATTR InstName R1
SYMATTR Value 1Meg
SYMBOL R 64 -112 R0
SYMATTR InstName R3
SYMATTR Value 70m
SYMBOL sw 160 0 M180
SYMATTR InstName S1
SYMATTR Value MYSW
SYMBOL nmos 64 32 R0
SYMATTR InstName M1
SYMATTR Value IRLHS6376
TEXT -338 312 Left 2 !.tran 1m
TEXT 232 -16 Left 2 !.model MYSW SW(Ron=1 Roff=1Meg Vt=.5 Vh=-.4)
