Version 4
SHEET 1 880 680
WIRE -240 64 -496 64
WIRE 48 64 -144 64
WIRE 208 64 48 64
WIRE 448 64 288 64
WIRE 512 64 448 64
WIRE 576 64 512 64
WIRE 448 128 448 64
WIRE 512 128 512 64
WIRE 48 144 48 64
WIRE -496 176 -496 64
WIRE -160 176 -160 112
WIRE -496 304 -496 256
WIRE -208 304 -496 304
WIRE -160 304 -160 256
WIRE -160 304 -208 304
WIRE 48 304 48 208
WIRE 48 304 -160 304
WIRE 448 304 448 192
WIRE 448 304 48 304
WIRE 512 304 512 208
WIRE 512 304 448 304
WIRE -208 368 -208 304
FLAG -208 368 0
FLAG 576 64 Vout
SYMBOL schottky 64 208 R180
WINDOW 0 24 64 Left 2
WINDOW 3 24 0 Left 2
SYMATTR InstName D1
SYMATTR Value B530C
SYMBOL ind 192 80 R270
WINDOW 0 32 56 VTop 2
WINDOW 3 5 56 VBottom 2
SYMATTR InstName L1
SYMATTR Value 22µ
SYMBOL cap 432 128 R0
SYMATTR InstName C1
SYMATTR Value 47µ
SYMBOL voltage -160 160 R0
WINDOW 123 0 0 Left 0
WINDOW 39 0 0 Left 0
SYMATTR InstName V1
SYMATTR Value PULSE(0 5 0 1n 1n 25m 50m)
SYMBOL voltage -496 160 R0
WINDOW 123 0 0 Left 0
WINDOW 39 0 0 Left 0
SYMATTR InstName V2
SYMATTR Value 24V
SYMBOL nmos -240 112 R270
SYMATTR InstName M2
SYMATTR Value Si7336ADP
SYMBOL R 496 112 R0
SYMATTR InstName R1
SYMATTR Value 4.125
TEXT -530 392 Left 2 !.tran 300m
