Version 4
SHEET 1 1320 680
WIRE 112 16 112 -48
WIRE 464 16 464 -48
WIRE 64 96 -64 96
WIRE 672 96 512 96
WIRE -352 192 -352 144
WIRE -272 192 -272 144
WIRE -192 192 -192 144
WIRE 112 256 112 112
WIRE 208 256 208 208
WIRE 208 256 112 256
WIRE 256 256 208 256
WIRE 368 256 368 208
WIRE 368 256 336 256
WIRE 464 256 464 112
WIRE 464 256 368 256
WIRE 208 304 208 256
WIRE 368 304 368 256
WIRE -352 320 -352 272
WIRE -272 320 -272 272
WIRE -272 320 -352 320
WIRE -192 320 -192 272
WIRE -192 320 -272 320
WIRE -272 352 -272 320
WIRE 112 384 112 256
WIRE 464 384 464 256
WIRE 64 464 -64 464
WIRE 672 464 512 464
WIRE 112 528 112 480
WIRE 208 528 208 368
WIRE 208 528 112 528
WIRE 288 528 208 528
WIRE 368 528 368 368
WIRE 368 528 288 528
WIRE 464 528 464 480
WIRE 464 528 368 528
WIRE 288 656 288 528
FLAG 288 656 0
FLAG -192 144 Vcc
FLAG -272 352 0
FLAG -64 96 T1
FLAG -64 464 T2
FLAG 672 96 T3
FLAG 672 464 T4
FLAG 112 -48 Vcc
FLAG 464 -48 Vcc
FLAG -272 144 T4
FLAG -352 144 T2
FLAG 208 208 LastLinks
FLAG 368 208 LastRechts
SYMBOL MOSFET_eig\\IRF540 64 16 R0
SYMATTR InstName U1
SYMBOL MOSFET_eig\\IRF540 64 384 R0
SYMATTR InstName U2
SYMBOL MOSFET_eig\\IRF540 512 16 M0
SYMATTR InstName U3
SYMBOL MOSFET_eig\\IRF540 512 384 M0
SYMATTR InstName U4
SYMBOL R 352 240 R90
WINDOW 0 5 56 VBottom 2
WINDOW 3 27 56 VTop 2
SYMATTR InstName RL
SYMATTR Value 1k
SYMBOL U -192 176 R0
WINDOW 123 0 0 Left 0
WINDOW 39 0 0 Left 0
SYMATTR InstName V1
SYMATTR Value 10V
SYMBOL U -272 176 R0
WINDOW 123 0 0 Left 0
WINDOW 39 0 0 Left 0
SYMATTR InstName V2
SYMATTR Value PULSE(0 5 0.1m 0 0 0.5m 1m)
SYMBOL U -352 176 R0
WINDOW 123 0 0 Left 0
WINDOW 39 0 0 Left 0
SYMATTR InstName V3
SYMATTR Value PULSE(0 5 0.1m 0 0 0.5m 1m)
SYMBOL cap 192 304 R0
SYMATTR InstName C1
SYMATTR Value 1µ
SYMBOL cap 352 304 R0
SYMATTR InstName C2
SYMATTR Value 1µ
TEXT -390 584 Left 2 !.tran 10m
